Version 4
SHEET 1 1304 680
WIRE 656 -288 560 -288
WIRE 864 -288 736 -288
WIRE 1056 -288 864 -288
WIRE 560 -224 560 -288
WIRE 864 -224 864 -288
WIRE 1056 -144 1056 -288
WIRE 864 -112 864 -160
WIRE 912 -112 864 -112
WIRE 864 -96 864 -112
WIRE 912 -80 912 -112
WIRE 864 0 864 -16
WIRE 912 0 912 -32
WIRE 912 0 864 0
WIRE 560 80 560 -160
WIRE 864 80 864 0
WIRE 864 80 560 80
WIRE 1056 80 1056 -64
WIRE 1056 80 864 80
WIRE 560 144 560 80
FLAG 560 144 0
SYMBOL g2 864 0 R180
WINDOW 3 -436 57 Invisible 2
SYMATTR InstName G1
SYMATTR Value Laplace=abs(s)*{C}/{tan_delta}
SYMBOL cap 848 -224 R0
SYMATTR InstName C1
SYMATTR Value {C}
SYMBOL ind 640 -272 R270
WINDOW 0 32 56 VTop 2
WINDOW 3 5 56 VBottom 2
SYMATTR InstName L1
SYMATTR Value 0.8µ
SYMATTR SpiceLine Rser=1m
SYMBOL cap 544 -224 R0
SYMATTR InstName C2
SYMATTR Value 10m
SYMBOL current 1056 -144 R0
WINDOW 0 52 29 Left 2
WINDOW 123 53 66 Left 2
WINDOW 39 0 0 Left 0
SYMATTR InstName I1
SYMATTR Value ""
SYMATTR Value2 AC 1 0
TEXT 512 -472 Left 2 !.param tan_delta=0.2 C=100e-6
TEXT 512 -496 Left 2 !.ac dec 100 100 100k
