Version 4
SHEET 1 3572 848
WIRE 608 -176 384 -176
WIRE 944 -176 608 -176
WIRE 608 -128 608 -176
WIRE 608 -128 512 -128
WIRE 944 -128 944 -176
WIRE 944 -128 848 -128
WIRE 512 -96 512 -128
WIRE 608 -96 608 -128
WIRE 848 -96 848 -128
WIRE 944 -96 944 -128
WIRE 384 0 384 -176
WIRE 512 16 512 -32
WIRE 608 16 608 -16
WIRE 608 16 512 16
WIRE 848 16 848 -32
WIRE 944 16 944 -16
WIRE 944 16 848 16
WIRE 608 48 608 16
WIRE 704 48 608 48
WIRE 944 48 944 16
WIRE 944 48 784 48
WIRE 608 80 608 48
WIRE 608 80 512 80
WIRE 944 80 944 48
WIRE 944 80 848 80
WIRE 848 96 848 80
WIRE 512 112 512 80
WIRE 608 112 608 80
WIRE 944 112 944 80
WIRE 512 224 512 176
WIRE 608 224 608 192
WIRE 608 224 512 224
WIRE 848 224 848 160
WIRE 944 224 944 192
WIRE 944 224 848 224
WIRE 384 272 384 80
WIRE 608 272 608 224
WIRE 608 272 384 272
WIRE 944 272 944 224
WIRE 944 272 608 272
WIRE 800 368 624 368
WIRE 928 368 864 368
WIRE 464 432 368 432
WIRE 480 432 464 432
WIRE 624 432 624 368
WIRE 624 432 576 432
WIRE 672 432 624 432
WIRE 800 432 736 432
WIRE 928 432 864 432
WIRE 672 448 640 448
WIRE 368 464 368 432
WIRE 640 480 640 448
WIRE 368 576 368 544
FLAG 464 432 m*
FLAG 656 -32 0
FLAG 656 176 0
FLAG 992 176 0
FLAG 992 -32 0
FLAG 368 576 0
FLAG 640 480 0
FLAG 928 368 g+
FLAG 928 432 g-
FLAG 656 -80 g+
FLAG 992 128 g+
FLAG 656 128 g-
FLAG 992 -80 g-
SYMBOL LTspiceControlLibrary\\PulseModulations\\PWM 496 464 R0
WINDOW 3 0 0 Invisible 2
SYMATTR Value Vin1=0 Vin2=1 Tperiod={1/2k}
SYMATTR InstName U3
SYMBOL voltage 384 -16 R0
WINDOW 123 0 0 Left 0
WINDOW 39 0 0 Left 0
SYMATTR InstName V1
SYMATTR Value 96
SYMBOL sw 608 0 R180
SYMATTR InstName S1
SYMATTR Value sw1
SYMBOL sw 608 208 R180
SYMATTR InstName S2
SYMATTR Value sw1
SYMBOL ind 688 64 R270
WINDOW 0 32 56 VTop 2
WINDOW 3 5 56 VBottom 2
SYMATTR InstName L1
SYMATTR Value 100m
SYMATTR SpiceLine Rser=3
SYMBOL sw 944 0 R180
SYMATTR InstName S3
SYMATTR Value sw1
SYMBOL sw 944 208 R180
SYMATTR InstName S4
SYMATTR Value sw1
SYMBOL diode 528 -32 R180
WINDOW 0 24 64 Left 2
WINDOW 3 24 0 Left 2
SYMATTR InstName D1
SYMBOL diode 528 176 R180
WINDOW 0 24 64 Left 2
WINDOW 3 24 0 Left 2
SYMATTR InstName D2
SYMBOL diode 864 -32 R180
WINDOW 0 24 64 Left 2
WINDOW 3 24 0 Left 2
SYMATTR InstName D3
SYMBOL diode 864 160 R180
WINDOW 0 24 64 Left 2
WINDOW 3 24 0 Left 2
SYMATTR InstName D4
SYMBOL voltage 368 448 R0
WINDOW 123 0 0 Left 0
WINDOW 39 0 0 Left 0
SYMATTR InstName V2
SYMATTR Value 0.8
SYMBOL Digital\\inv 672 368 R0
SYMATTR InstName A1
SYMBOL LTspiceControlLibrary\\PulseModulations\\OnOffDelay 816 400 R0
SYMATTR Value Ton=1u Toff=0
SYMATTR InstName U1
SYMBOL LTspiceControlLibrary\\PulseModulations\\OnOffDelay 816 464 R0
SYMATTR Value Ton=1u Toff=0
SYMATTR InstName U2
TEXT 376 -264 Left 2 !.tran 0 0.2 0 1u
TEXT 376 -224 Left 2 !.model sw1 SW(Ron=1m Roff=100Meg Vt=0.5)
TEXT 376 -296 Left 2 !.ic I(L1)=0
